<?xml version="1.0" encoding="UTF-8"?>

<!-- generated on 2022-03-29 13:18:09 by Eclipse SUMO sumo Version 1.12.0
<configuration xmlns:xsi="http://www.w3.org/2001/XMLSchema-instance" xsi:noNamespaceSchemaLocation="http://sumo.dlr.de/xsd/sumoConfiguration.xsd">

    <input>
        <net-file value="data/4_4_intersections.net.xml"/>
        <route-files value="data/4_4_intersections_train_6.rou.xml"/>
        <additional-files value="data/4_4_intersections_train_6.add.xml"/>
    </input>

    <time>
        <begin value="0"/>
    </time>

    <report>
        <verbose value="false"/>
        <no-warnings value="true"/>
        <no-step-log value="true"/>
    </report>

    <traci_server>
        <remote-port value="1198"/>
    </traci_server>

</configuration>
